Pretty cold on mars, isn't it.
This could be an issue b/c there are two moons.
New line.
Changes to merge with no conflict.
